src/test/resources/netPositionsData/20190618_0030_2D2_D81.uct
##C 2007.05.01

##N
##ZD8
D8R_PE11 SHADOW       1 2 400.00   10.00   10.00   10.00   10.00 -306.20   20.00
D8O_KO11 SHADOW       1 2 400.00   10.00   10.00   10.00   10.00 -432.39   20.00
##ZXX
X8R_PE11 CORE         1 0 400.00   10.00   10.00   10.00   10.00   20.00   20.00
X8O_KO11 OUT          1 0 400.00   10.00   10.00   10.00   10.00   20.00   20.00
##L
D8R_PE11 X8R_PE11 1 0  20.00  20.00   20.00   5000
D8O_KO11 X8O_KO11 1 0  20.00  20.00   20.00   5000
##T
##R
